  Version,
    9.5;

  Timestep,
    6;

  LifeCycleCost:Parameters,
    Life Cycle Cost Parameters,
    EndOfYear,
    ConstantDollar,
    0.03,
    ,
    ,
    ,
    2011,
    ,
    2011,
    25,
    ,
    None;

  LifeCycleCost:UsePriceEscalation,
    U.S. Avg  Commercial-Electricity,
    Electricity,
    2011,
    January,
    0.9838,
    0.9730,
    0.9632,
    0.9611,
    0.9571,
    0.9553,
    0.9539,
    0.9521,
    0.9546,
    0.9550,
    0.9553,
    0.9564,
    0.9575,
    0.9596,
    0.9618,
    0.9614,
    0.9618,
    0.9618,
    0.9593,
    0.9589,
    0.9607,
    0.9625,
    0.9650,
    0.9708,
    0.9751,
    0.9762,
    0.9766,
    0.9766,
    0.9769,
    0.9773;

  LifeCycleCost:UsePriceEscalation,
    U.S. Avg  Commercial-Distillate Oil,
    FuelOilNo1,
    2011,
    January,
    0.9714,
    0.9730,
    0.9942,
    1.0164,
    1.0541,
    1.0928,
    1.1267,
    1.1580,
    1.1792,
    1.1967,
    1.2200,
    1.2333,
    1.2566,
    1.2709,
    1.2826,
    1.2985,
    1.3102,
    1.3250,
    1.3261,
    1.3282,
    1.3324,
    1.3356,
    1.3431,
    1.3510,
    1.3568,
    1.3606,
    1.3637,
    1.3674,
    1.3706,
    1.3743;

  LifeCycleCost:UsePriceEscalation,
    U.S. Avg  Commercial-Residual Oil,
    FuelOilNo2,
    2011,
    January,
    0.8469,
    0.8257,
    0.8681,
    0.8988,
    0.9289,
    0.9604,
    0.9897,
    1.0075,
    1.0314,
    1.0554,
    1.0861,
    1.1278,
    1.1497,
    1.1620,
    1.1743,
    1.1852,
    1.1948,
    1.2037,
    1.2071,
    1.2119,
    1.2139,
    1.2194,
    1.2276,
    1.2365,
    1.2420,
    1.2461,
    1.2509,
    1.2550,
    1.2591,
    1.2638;

  LifeCycleCost:UsePriceEscalation,
    U.S. Avg  Commercial-Natural gas,
    NaturalGas,
    2011,
    January,
    0.9823,
    0.9557,
    0.9279,
    0.9257,
    0.9346,
    0.9412,
    0.9512,
    0.9645,
    0.9856,
    1.0067,
    1.0222,
    1.0410,
    1.0610,
    1.0787,
    1.0942,
    1.1098,
    1.1220,
    1.1308,
    1.1386,
    1.1486,
    1.1619,
    1.1763,
    1.1918,
    1.2118,
    1.2284,
    1.2439,
    1.2605,
    1.2772,
    1.2938,
    1.3115;

  LifeCycleCost:UsePriceEscalation,
    U.S. Avg  Commercial-Coal,
    Coal,
    2011,
    January,
    0.9970,
    1.0089,
    1.0089,
    0.9941,
    0.9941,
    1.0000,
    1.0030,
    1.0059,
    1.0089,
    1.0119,
    1.0148,
    1.0178,
    1.0208,
    1.0267,
    1.0297,
    1.0356,
    1.0415,
    1.0534,
    1.0564,
    1.0593,
    1.0653,
    1.0712,
    1.0742,
    1.0801,
    1.0831,
    1.0831,
    1.0861,
    1.0890,
    1.0920,
    1.0950;

  Building,
    Building 1,
    ,
    city,
    ,
    ,
    FullExterior,
    50,
    ;

  Zone,
    S1 basement core,
    ,
    ,
    ,
    ,
    ,
    ,
    ,
    ,
    ,
    ,
    ,
    Yes;

  Zone,
    S10 office core,
    ,
    ,
    ,
    ,
    ,
    ,
    ,
    ,
    ,
    ,
    ,
    Yes;

  Zone,
    S11 office core,
    ,
    ,
    ,
    ,
    ,
    ,
    ,
    ,
    ,
    ,
    ,
    Yes;

  Zone,
    S12 office core,
    ,
    ,
    ,
    ,
    ,
    ,
    ,
    ,
    ,
    ,
    ,
    Yes;

  Zone,
    S13 office core,
    ,
    ,
    ,
    ,
    ,
    ,
    ,
    ,
    ,
    ,
    ,
    Yes;

  Zone,
    S14 office core,
    ,
    ,
    ,
    ,
    ,
    ,
    ,
    ,
    ,
    ,
    ,
    Yes;

  Zone,
    S15 office core,
    ,
    ,
    ,
    ,
    ,
    ,
    ,
    ,
    ,
    ,
    ,
    Yes;

  Zone,
    S16 office core,
    ,
    ,
    ,
    ,
    ,
    ,
    ,
    ,
    ,
    ,
    ,
    Yes;

  Zone,
    S17 office core,
    ,
    ,
    ,
    ,
    ,
    ,
    ,
    ,
    ,
    ,
    ,
    Yes;

  Zone,
    S18 office core,
    ,
    ,
    ,
    ,
    ,
    ,
    ,
    ,
    ,
    ,
    ,
    Yes;

  Zone,
    S19 office core,
    ,
    ,
    ,
    ,
    ,
    ,
    ,
    ,
    ,
    ,
    ,
    Yes;

  Zone,
    S2 office core,
    ,
    ,
    ,
    ,
    ,
    ,
    ,
    ,
    ,
    ,
    ,
    Yes;

  Zone,
    S20 office core,
    ,
    ,
    ,
    ,
    ,
    ,
    ,
    ,
    ,
    ,
    ,
    Yes;

  Zone,
    S3 office core,
    ,
    ,
    ,
    ,
    ,
    ,
    ,
    ,
    ,
    ,
    ,
    Yes;

  Zone,
    S4 office core,
    ,
    ,
    ,
    ,
    ,
    ,
    ,
    ,
    ,
    ,
    ,
    Yes;

  Zone,
    S5 office core,
    ,
    ,
    ,
    ,
    ,
    ,
    ,
    ,
    ,
    ,
    ,
    Yes;

  Zone,
    S6 office core,
    ,
    ,
    ,
    ,
    ,
    ,
    ,
    ,
    ,
    ,
    ,
    Yes;

  Zone,
    S7 office core,
    ,
    ,
    ,
    ,
    ,
    ,
    ,
    ,
    ,
    ,
    ,
    Yes;

  Zone,
    S8 office core,
    ,
    ,
    ,
    ,
    ,
    ,
    ,
    ,
    ,
    ,
    ,
    Yes;

  Zone,
    S9 office core,
    ,
    ,
    ,
    ,
    ,
    ,
    ,
    ,
    ,
    ,
    ,
    Yes;

  BuildingSurface:Detailed,
    S1 basement core floor,
    Floor,
    basement ext floor LOB1013C_ext-slab,
    S1 basement core,
    Ground,
    ,
    NoSun,
    NoWind,
    ,
    ,
    4.5999999998603,
    -2.01000000000931,
    -4.126,
    4.36999999987893,
    0.5,
    -4.126,
    55.3899999998976,
    7.78000000002794,
    -4.126,
    55.6899999999441,
    4.80999999993946,
    -4.126,
    60.1699999999255,
    5.56999999994878,
    -4.126,
    64.3199999998324,
    -23.9400000000605,
    -4.126,
    4.53999999980442,
    -32.3000000000466,
    -4.126,
    0.389999999897555,
    -2.69000000006054,
    -4.126;

  BuildingSurface:Detailed,
    S1 basement core roof,
    Ceiling,
    ext wall Adiabatic Construction,
    S1 basement core,
    Adiabatic,
    ,
    NoSun,
    NoWind,
    ,
    ,
    4.36999999987893,
    0.5,
    0,
    4.5999999998603,
    -2.01000000000931,
    0,
    0.389999999897555,
    -2.69000000006054,
    0,
    4.53999999980442,
    -32.3000000000466,
    0,
    64.3199999998324,
    -23.9400000000605,
    0,
    60.1699999999255,
    5.56999999994878,
    0,
    55.6899999999441,
    4.80999999993946,
    0,
    55.3899999998976,
    7.78000000002794,
    0;

  BuildingSurface:Detailed,
    S1 basement core wall 0,
    Wall,
    basement ext wall LOB1013C_Underground Wall Non-res,
    S1 basement core,
    Ground,
    ,
    NoSun,
    NoWind,
    ,
    ,
    4.36999999987893,
    0.5,
    0,
    4.36999999987893,
    0.5,
    -4.126,
    4.5999999998603,
    -2.01000000000931,
    -4.126,
    4.5999999998603,
    -2.01000000000931,
    0;

  BuildingSurface:Detailed,
    S1 basement core wall 1,
    Wall,
    basement ext wall LOB1013C_Underground Wall Non-res,
    S1 basement core,
    Ground,
    ,
    NoSun,
    NoWind,
    ,
    ,
    4.5999999998603,
    -2.01000000000931,
    0,
    4.5999999998603,
    -2.01000000000931,
    -4.126,
    0.389999999897555,
    -2.69000000006054,
    -4.126,
    0.389999999897555,
    -2.69000000006054,
    0;

  BuildingSurface:Detailed,
    S1 basement core wall 2,
    Wall,
    basement ext wall LOB1013C_Underground Wall Non-res,
    S1 basement core,
    Ground,
    ,
    NoSun,
    NoWind,
    ,
    ,
    0.389999999897555,
    -2.69000000006054,
    0,
    0.389999999897555,
    -2.69000000006054,
    -4.126,
    4.53999999980442,
    -32.3000000000466,
    -4.126,
    4.53999999980442,
    -32.3000000000466,
    0;

  BuildingSurface:Detailed,
    S1 basement core wall 3,
    Wall,
    basement ext wall LOB1013C_Underground Wall Non-res,
    S1 basement core,
    Ground,
    ,
    NoSun,
    NoWind,
    ,
    ,
    4.53999999980442,
    -32.3000000000466,
    0,
    4.53999999980442,
    -32.3000000000466,
    -4.126,
    64.3199999998324,
    -23.9400000000605,
    -4.126,
    64.3199999998324,
    -23.9400000000605,
    0;

  BuildingSurface:Detailed,
    S1 basement core wall 4,
    Wall,
    basement ext wall LOB1013C_Underground Wall Non-res,
    S1 basement core,
    Ground,
    ,
    NoSun,
    NoWind,
    ,
    ,
    64.3199999998324,
    -23.9400000000605,
    0,
    64.3199999998324,
    -23.9400000000605,
    -4.126,
    60.1699999999255,
    5.56999999994878,
    -4.126,
    60.1699999999255,
    5.56999999994878,
    0;

  BuildingSurface:Detailed,
    S1 basement core wall 5,
    Wall,
    basement ext wall LOB1013C_Underground Wall Non-res,
    S1 basement core,
    Ground,
    ,
    NoSun,
    NoWind,
    ,
    ,
    60.1699999999255,
    5.56999999994878,
    0,
    60.1699999999255,
    5.56999999994878,
    -4.126,
    55.6899999999441,
    4.80999999993946,
    -4.126,
    55.6899999999441,
    4.80999999993946,
    0;

  BuildingSurface:Detailed,
    S1 basement core wall 6,
    Wall,
    basement ext wall LOB1013C_Underground Wall Non-res,
    S1 basement core,
    Ground,
    ,
    NoSun,
    NoWind,
    ,
    ,
    55.6899999999441,
    4.80999999993946,
    0,
    55.6899999999441,
    4.80999999993946,
    -4.126,
    55.3899999998976,
    7.78000000002794,
    -4.126,
    55.3899999998976,
    7.78000000002794,
    0;

  BuildingSurface:Detailed,
    S1 basement core wall 7,
    Wall,
    basement ext wall LOB1013C_Underground Wall Non-res,
    S1 basement core,
    Ground,
    ,
    NoSun,
    NoWind,
    ,
    ,
    55.3899999998976,
    7.78000000002794,
    0,
    55.3899999998976,
    7.78000000002794,
    -4.126,
    4.36999999987893,
    0.5,
    -4.126,
    4.36999999987893,
    0.5,
    0;

  BuildingSurface:Detailed,
    S10 office core floor,
    Floor,
    office int floor Metal framed walls,
    S10 office core,
    Surface,
    S9 office core roof,
    NoSun,
    NoWind,
    ,
    ,
    4.5999999998603,
    -2.01000000000931,
    33.008,
    4.36999999987893,
    0.5,
    33.008,
    55.3899999998976,
    7.78000000002794,
    33.008,
    55.6899999999441,
    4.80999999993946,
    33.008,
    60.1699999999255,
    5.56999999994878,
    33.008,
    64.3199999998324,
    -23.9400000000605,
    33.008,
    4.53999999980442,
    -32.3000000000466,
    33.008,
    0.389999999897555,
    -2.69000000006054,
    33.008;

  BuildingSurface:Detailed,
    S10 office core roof,
    Ceiling,
    office int floor Metal framed walls Reversed,
    S10 office core,
    Surface,
    S11 office core floor,
    NoSun,
    NoWind,
    ,
    ,
    4.36999999987893,
    0.5,
    37.134,
    4.5999999998603,
    -2.01000000000931,
    37.134,
    0.389999999897555,
    -2.69000000006054,
    37.134,
    4.53999999980442,
    -32.3000000000466,
    37.134,
    64.3199999998324,
    -23.9400000000605,
    37.134,
    60.1699999999255,
    5.56999999994878,
    37.134,
    55.6899999999441,
    4.80999999993946,
    37.134,
    55.3899999998976,
    7.78000000002794,
    37.134;

  BuildingSurface:Detailed,
    S10 office core wall 0,
    Wall,
    office ext wall Metal framed walls,
    S10 office core,
    Outdoors,
    ,
    SunExposed,
    WindExposed,
    ,
    ,
    4.36999999987893,
    0.5,
    37.134,
    4.36999999987893,
    0.5,
    33.008,
    4.5999999998603,
    -2.01000000000931,
    33.008,
    4.5999999998603,
    -2.01000000000931,
    37.134;

  BuildingSurface:Detailed,
    S10 office core wall 1,
    Wall,
    office ext wall Metal framed walls,
    S10 office core,
    Outdoors,
    ,
    SunExposed,
    WindExposed,
    ,
    ,
    4.5999999998603,
    -2.01000000000931,
    37.134,
    4.5999999998603,
    -2.01000000000931,
    33.008,
    0.389999999897555,
    -2.69000000006054,
    33.008,
    0.389999999897555,
    -2.69000000006054,
    37.134;

  BuildingSurface:Detailed,
    S10 office core wall 2,
    Wall,
    office ext wall Metal framed walls,
    S10 office core,
    Outdoors,
    ,
    SunExposed,
    WindExposed,
    ,
    ,
    0.389999999897555,
    -2.69000000006054,
    37.134,
    0.389999999897555,
    -2.69000000006054,
    33.008,
    4.53999999980442,
    -32.3000000000466,
    33.008,
    4.53999999980442,
    -32.3000000000466,
    37.134;

  BuildingSurface:Detailed,
    S10 office core wall 3,
    Wall,
    office ext wall Metal framed walls,
    S10 office core,
    Outdoors,
    ,
    SunExposed,
    WindExposed,
    ,
    ,
    4.53999999980442,
    -32.3000000000466,
    37.134,
    4.53999999980442,
    -32.3000000000466,
    33.008,
    64.3199999998324,
    -23.9400000000605,
    33.008,
    64.3199999998324,
    -23.9400000000605,
    37.134;

  BuildingSurface:Detailed,
    S10 office core wall 4,
    Wall,
    office ext wall Metal framed walls,
    S10 office core,
    Outdoors,
    ,
    SunExposed,
    WindExposed,
    ,
    ,
    64.3199999998324,
    -23.9400000000605,
    37.134,
    64.3199999998324,
    -23.9400000000605,
    33.008,
    60.1699999999255,
    5.56999999994878,
    33.008,
    60.1699999999255,
    5.56999999994878,
    37.134;

  BuildingSurface:Detailed,
    S10 office core wall 5,
    Wall,
    office ext wall Metal framed walls,
    S10 office core,
    Outdoors,
    ,
    SunExposed,
    WindExposed,
    ,
    ,
    60.1699999999255,
    5.56999999994878,
    37.134,
    60.1699999999255,
    5.56999999994878,
    33.008,
    55.6899999999441,
    4.80999999993946,
    33.008,
    55.6899999999441,
    4.80999999993946,
    37.134;

  BuildingSurface:Detailed,
    S10 office core wall 6,
    Wall,
    office ext wall Metal framed walls,
    S10 office core,
    Outdoors,
    ,
    SunExposed,
    WindExposed,
    ,
    ,
    55.6899999999441,
    4.80999999993946,
    37.134,
    55.6899999999441,
    4.80999999993946,
    33.008,
    55.3899999998976,
    7.78000000002794,
    33.008,
    55.3899999998976,
    7.78000000002794,
    37.134;

  BuildingSurface:Detailed,
    S10 office core wall 7,
    Wall,
    office ext wall Metal framed walls,
    S10 office core,
    Outdoors,
    ,
    SunExposed,
    WindExposed,
    ,
    ,
    55.3899999998976,
    7.78000000002794,
    37.134,
    55.3899999998976,
    7.78000000002794,
    33.008,
    4.36999999987893,
    0.5,
    33.008,
    4.36999999987893,
    0.5,
    37.134;

  BuildingSurface:Detailed,
    S11 office core floor,
    Floor,
    office int floor Metal framed walls,
    S11 office core,
    Surface,
    S10 office core roof,
    NoSun,
    NoWind,
    ,
    ,
    4.5999999998603,
    -2.01000000000931,
    37.134,
    4.36999999987893,
    0.5,
    37.134,
    55.3899999998976,
    7.78000000002794,
    37.134,
    55.6899999999441,
    4.80999999993946,
    37.134,
    60.1699999999255,
    5.56999999994878,
    37.134,
    64.3199999998324,
    -23.9400000000605,
    37.134,
    4.53999999980442,
    -32.3000000000466,
    37.134,
    0.389999999897555,
    -2.69000000006054,
    37.134;

  BuildingSurface:Detailed,
    S11 office core roof,
    Ceiling,
    office int floor Metal framed walls Reversed,
    S11 office core,
    Surface,
    S12 office core floor,
    NoSun,
    NoWind,
    ,
    ,
    4.36999999987893,
    0.5,
    41.26,
    4.5999999998603,
    -2.01000000000931,
    41.26,
    0.389999999897555,
    -2.69000000006054,
    41.26,
    4.53999999980442,
    -32.3000000000466,
    41.26,
    64.3199999998324,
    -23.9400000000605,
    41.26,
    60.1699999999255,
    5.56999999994878,
    41.26,
    55.6899999999441,
    4.80999999993946,
    41.26,
    55.3899999998976,
    7.78000000002794,
    41.26;

  BuildingSurface:Detailed,
    S11 office core wall 0,
    Wall,
    office ext wall Metal framed walls,
    S11 office core,
    Outdoors,
    ,
    SunExposed,
    WindExposed,
    ,
    ,
    4.36999999987893,
    0.5,
    41.26,
    4.36999999987893,
    0.5,
    37.134,
    4.5999999998603,
    -2.01000000000931,
    37.134,
    4.5999999998603,
    -2.01000000000931,
    41.26;

  BuildingSurface:Detailed,
    S11 office core wall 1,
    Wall,
    office ext wall Metal framed walls,
    S11 office core,
    Outdoors,
    ,
    SunExposed,
    WindExposed,
    ,
    ,
    4.5999999998603,
    -2.01000000000931,
    41.26,
    4.5999999998603,
    -2.01000000000931,
    37.134,
    0.389999999897555,
    -2.69000000006054,
    37.134,
    0.389999999897555,
    -2.69000000006054,
    41.26;

  BuildingSurface:Detailed,
    S11 office core wall 2,
    Wall,
    office ext wall Metal framed walls,
    S11 office core,
    Outdoors,
    ,
    SunExposed,
    WindExposed,
    ,
    ,
    0.389999999897555,
    -2.69000000006054,
    41.26,
    0.389999999897555,
    -2.69000000006054,
    37.134,
    4.53999999980442,
    -32.3000000000466,
    37.134,
    4.53999999980442,
    -32.3000000000466,
    41.26;

  BuildingSurface:Detailed,
    S11 office core wall 3,
    Wall,
    office ext wall Metal framed walls,
    S11 office core,
    Outdoors,
    ,
    SunExposed,
    WindExposed,
    ,
    ,
    4.53999999980442,
    -32.3000000000466,
    41.26,
    4.53999999980442,
    -32.3000000000466,
    37.134,
    64.3199999998324,
    -23.9400000000605,
    37.134,
    64.3199999998324,
    -23.9400000000605,
    41.26;

  BuildingSurface:Detailed,
    S11 office core wall 4,
    Wall,
    office ext wall Metal framed walls,
    S11 office core,
    Outdoors,
    ,
    SunExposed,
    WindExposed,
    ,
    ,
    64.3199999998324,
    -23.9400000000605,
    41.26,
    64.3199999998324,
    -23.9400000000605,
    37.134,
    60.1699999999255,
    5.56999999994878,
    37.134,
    60.1699999999255,
    5.56999999994878,
    41.26;

  BuildingSurface:Detailed,
    S11 office core wall 5,
    Wall,
    office ext wall Metal framed walls,
    S11 office core,
    Outdoors,
    ,
    SunExposed,
    WindExposed,
    ,
    ,
    60.1699999999255,
    5.56999999994878,
    41.26,
    60.1699999999255,
    5.56999999994878,
    37.134,
    55.6899999999441,
    4.80999999993946,
    37.134,
    55.6899999999441,
    4.80999999993946,
    41.26;

  BuildingSurface:Detailed,
    S11 office core wall 6,
    Wall,
    office ext wall Metal framed walls,
    S11 office core,
    Outdoors,
    ,
    SunExposed,
    WindExposed,
    ,
    ,
    55.6899999999441,
    4.80999999993946,
    41.26,
    55.6899999999441,
    4.80999999993946,
    37.134,
    55.3899999998976,
    7.78000000002794,
    37.134,
    55.3899999998976,
    7.78000000002794,
    41.26;

  BuildingSurface:Detailed,
    S11 office core wall 7,
    Wall,
    office ext wall Metal framed walls,
    S11 office core,
    Outdoors,
    ,
    SunExposed,
    WindExposed,
    ,
    ,
    55.3899999998976,
    7.78000000002794,
    41.26,
    55.3899999998976,
    7.78000000002794,
    37.134,
    4.36999999987893,
    0.5,
    37.134,
    4.36999999987893,
    0.5,
    41.26;

  BuildingSurface:Detailed,
    S12 office core floor,
    Floor,
    office int floor Metal framed walls,
    S12 office core,
    Surface,
    S11 office core roof,
    NoSun,
    NoWind,
    ,
    ,
    4.5999999998603,
    -2.01000000000931,
    41.26,
    4.36999999987893,
    0.5,
    41.26,
    55.3899999998976,
    7.78000000002794,
    41.26,
    55.6899999999441,
    4.80999999993946,
    41.26,
    60.1699999999255,
    5.56999999994878,
    41.26,
    64.3199999998324,
    -23.9400000000605,
    41.26,
    4.53999999980442,
    -32.3000000000466,
    41.26,
    0.389999999897555,
    -2.69000000006054,
    41.26;

  BuildingSurface:Detailed,
    S12 office core roof,
    Ceiling,
    office int floor Metal framed walls Reversed,
    S12 office core,
    Surface,
    S13 office core floor,
    NoSun,
    NoWind,
    ,
    ,
    4.36999999987893,
    0.5,
    45.386,
    4.5999999998603,
    -2.01000000000931,
    45.386,
    0.389999999897555,
    -2.69000000006054,
    45.386,
    4.53999999980442,
    -32.3000000000466,
    45.386,
    64.3199999998324,
    -23.9400000000605,
    45.386,
    60.1699999999255,
    5.56999999994878,
    45.386,
    55.6899999999441,
    4.80999999993946,
    45.386,
    55.3899999998976,
    7.78000000002794,
    45.386;

  BuildingSurface:Detailed,
    S12 office core wall 0,
    Wall,
    office ext wall Metal framed walls,
    S12 office core,
    Outdoors,
    ,
    SunExposed,
    WindExposed,
    ,
    ,
    4.36999999987893,
    0.5,
    45.386,
    4.36999999987893,
    0.5,
    41.26,
    4.5999999998603,
    -2.01000000000931,
    41.26,
    4.5999999998603,
    -2.01000000000931,
    45.386;

  BuildingSurface:Detailed,
    S12 office core wall 1,
    Wall,
    office ext wall Metal framed walls,
    S12 office core,
    Outdoors,
    ,
    SunExposed,
    WindExposed,
    ,
    ,
    4.5999999998603,
    -2.01000000000931,
    45.386,
    4.5999999998603,
    -2.01000000000931,
    41.26,
    0.389999999897555,
    -2.69000000006054,
    41.26,
    0.389999999897555,
    -2.69000000006054,
    45.386;

  BuildingSurface:Detailed,
    S12 office core wall 2,
    Wall,
    office ext wall Metal framed walls,
    S12 office core,
    Outdoors,
    ,
    SunExposed,
    WindExposed,
    ,
    ,
    0.389999999897555,
    -2.69000000006054,
    45.386,
    0.389999999897555,
    -2.69000000006054,
    41.26,
    4.53999999980442,
    -32.3000000000466,
    41.26,
    4.53999999980442,
    -32.3000000000466,
    45.386;

  BuildingSurface:Detailed,
    S12 office core wall 3,
    Wall,
    office ext wall Metal framed walls,
    S12 office core,
    Outdoors,
    ,
    SunExposed,
    WindExposed,
    ,
    ,
    4.53999999980442,
    -32.3000000000466,
    45.386,
    4.53999999980442,
    -32.3000000000466,
    41.26,
    64.3199999998324,
    -23.9400000000605,
    41.26,
    64.3199999998324,
    -23.9400000000605,
    45.386;

  BuildingSurface:Detailed,
    S12 office core wall 4,
    Wall,
    office ext wall Metal framed walls,
    S12 office core,
    Outdoors,
    ,
    SunExposed,
    WindExposed,
    ,
    ,
    64.3199999998324,
    -23.9400000000605,
    45.386,
    64.3199999998324,
    -23.9400000000605,
    41.26,
    60.1699999999255,
    5.56999999994878,
    41.26,
    60.1699999999255,
    5.56999999994878,
    45.386;

  BuildingSurface:Detailed,
    S12 office core wall 5,
    Wall,
    office ext wall Metal framed walls,
    S12 office core,
    Outdoors,
    ,
    SunExposed,
    WindExposed,
    ,
    ,
    60.1699999999255,
    5.56999999994878,
    45.386,
    60.1699999999255,
    5.56999999994878,
    41.26,
    55.6899999999441,
    4.80999999993946,
    41.26,
    55.6899999999441,
    4.80999999993946,
    45.386;

  BuildingSurface:Detailed,
    S12 office core wall 6,
    Wall,
    office ext wall Metal framed walls,
    S12 office core,
    Outdoors,
    ,
    SunExposed,
    WindExposed,
    ,
    ,
    55.6899999999441,
    4.80999999993946,
    45.386,
    55.6899999999441,
    4.80999999993946,
    41.26,
    55.3899999998976,
    7.78000000002794,
    41.26,
    55.3899999998976,
    7.78000000002794,
    45.386;

  BuildingSurface:Detailed,
    S12 office core wall 7,
    Wall,
    office ext wall Metal framed walls,
    S12 office core,
    Outdoors,
    ,
    SunExposed,
    WindExposed,
    ,
    ,
    55.3899999998976,
    7.78000000002794,
    45.386,
    55.3899999998976,
    7.78000000002794,
    41.26,
    4.36999999987893,
    0.5,
    41.26,
    4.36999999987893,
    0.5,
    45.386;

  BuildingSurface:Detailed,
    S13 office core floor,
    Floor,
    office int floor Metal framed walls,
    S13 office core,
    Surface,
    S12 office core roof,
    NoSun,
    NoWind,
    ,
    ,
    4.5999999998603,
    -2.01000000000931,
    45.386,
    4.36999999987893,
    0.5,
    45.386,
    55.3899999998976,
    7.78000000002794,
    45.386,
    55.6899999999441,
    4.80999999993946,
    45.386,
    60.1699999999255,
    5.56999999994878,
    45.386,
    64.3199999998324,
    -23.9400000000605,
    45.386,
    4.53999999980442,
    -32.3000000000466,
    45.386,
    0.389999999897555,
    -2.69000000006054,
    45.386;

  BuildingSurface:Detailed,
    S13 office core roof,
    Ceiling,
    office int floor Metal framed walls Reversed,
    S13 office core,
    Surface,
    S14 office core floor,
    NoSun,
    NoWind,
    ,
    ,
    4.36999999987893,
    0.5,
    49.512,
    4.5999999998603,
    -2.01000000000931,
    49.512,
    0.389999999897555,
    -2.69000000006054,
    49.512,
    4.53999999980442,
    -32.3000000000466,
    49.512,
    64.3199999998324,
    -23.9400000000605,
    49.512,
    60.1699999999255,
    5.56999999994878,
    49.512,
    55.6899999999441,
    4.80999999993946,
    49.512,
    55.3899999998976,
    7.78000000002794,
    49.512;

  BuildingSurface:Detailed,
    S13 office core wall 0,
    Wall,
    office ext wall Metal framed walls,
    S13 office core,
    Outdoors,
    ,
    SunExposed,
    WindExposed,
    ,
    ,
    4.36999999987893,
    0.5,
    49.512,
    4.36999999987893,
    0.5,
    45.386,
    4.5999999998603,
    -2.01000000000931,
    45.386,
    4.5999999998603,
    -2.01000000000931,
    49.512;

  BuildingSurface:Detailed,
    S13 office core wall 1,
    Wall,
    office ext wall Metal framed walls,
    S13 office core,
    Outdoors,
    ,
    SunExposed,
    WindExposed,
    ,
    ,
    4.5999999998603,
    -2.01000000000931,
    49.512,
    4.5999999998603,
    -2.01000000000931,
    45.386,
    0.389999999897555,
    -2.69000000006054,
    45.386,
    0.389999999897555,
    -2.69000000006054,
    49.512;

  BuildingSurface:Detailed,
    S13 office core wall 2,
    Wall,
    office ext wall Metal framed walls,
    S13 office core,
    Outdoors,
    ,
    SunExposed,
    WindExposed,
    ,
    ,
    0.389999999897555,
    -2.69000000006054,
    49.512,
    0.389999999897555,
    -2.69000000006054,
    45.386,
    4.53999999980442,
    -32.3000000000466,
    45.386,
    4.53999999980442,
    -32.3000000000466,
    49.512;

  BuildingSurface:Detailed,
    S13 office core wall 3,
    Wall,
    office ext wall Metal framed walls,
    S13 office core,
    Outdoors,
    ,
    SunExposed,
    WindExposed,
    ,
    ,
    4.53999999980442,
    -32.3000000000466,
    49.512,
    4.53999999980442,
    -32.3000000000466,
    45.386,
    64.3199999998324,
    -23.9400000000605,
    45.386,
    64.3199999998324,
    -23.9400000000605,
    49.512;

  BuildingSurface:Detailed,
    S13 office core wall 4,
    Wall,
    office ext wall Metal framed walls,
    S13 office core,
    Outdoors,
    ,
    SunExposed,
    WindExposed,
    ,
    ,
    64.3199999998324,
    -23.9400000000605,
    49.512,
    64.3199999998324,
    -23.9400000000605,
    45.386,
    60.1699999999255,
    5.56999999994878,
    45.386,
    60.1699999999255,
    5.56999999994878,
    49.512;

  BuildingSurface:Detailed,
    S13 office core wall 5,
    Wall,
    office ext wall Metal framed walls,
    S13 office core,
    Outdoors,
    ,
    SunExposed,
    WindExposed,
    ,
    ,
    60.1699999999255,
    5.56999999994878,
    49.512,
    60.1699999999255,
    5.56999999994878,
    45.386,
    55.6899999999441,
    4.80999999993946,
    45.386,
    55.6899999999441,
    4.80999999993946,
    49.512;

  BuildingSurface:Detailed,
    S13 office core wall 6,
    Wall,
    office ext wall Metal framed walls,
    S13 office core,
    Outdoors,
    ,
    SunExposed,
    WindExposed,
    ,
    ,
    55.6899999999441,
    4.80999999993946,
    49.512,
    55.6899999999441,
    4.80999999993946,
    45.386,
    55.3899999998976,
    7.78000000002794,
    45.386,
    55.3899999998976,
    7.78000000002794,
    49.512;

  BuildingSurface:Detailed,
    S13 office core wall 7,
    Wall,
    office ext wall Metal framed walls,
    S13 office core,
    Outdoors,
    ,
    SunExposed,
    WindExposed,
    ,
    ,
    55.3899999998976,
    7.78000000002794,
    49.512,
    55.3899999998976,
    7.78000000002794,
    45.386,
    4.36999999987893,
    0.5,
    45.386,
    4.36999999987893,
    0.5,
    49.512;

  BuildingSurface:Detailed,
    S14 office core floor,
    Floor,
    office int floor Metal framed walls,
    S14 office core,
    Surface,
    S13 office core roof,
    NoSun,
    NoWind,
    ,
    ,
    4.5999999998603,
    -2.01000000000931,
    49.512,
    4.36999999987893,
    0.5,
    49.512,
    55.3899999998976,
    7.78000000002794,
    49.512,
    55.6899999999441,
    4.80999999993946,
    49.512,
    60.1699999999255,
    5.56999999994878,
    49.512,
    64.3199999998324,
    -23.9400000000605,
    49.512,
    4.53999999980442,
    -32.3000000000466,
    49.512,
    0.389999999897555,
    -2.69000000006054,
    49.512;

  BuildingSurface:Detailed,
    S14 office core roof,
    Ceiling,
    office int floor Metal framed walls Reversed,
    S14 office core,
    Surface,
    S15 office core floor,
    NoSun,
    NoWind,
    ,
    ,
    4.36999999987893,
    0.5,
    53.638,
    4.5999999998603,
    -2.01000000000931,
    53.638,
    0.389999999897555,
    -2.69000000006054,
    53.638,
    4.53999999980442,
    -32.3000000000466,
    53.638,
    64.3199999998324,
    -23.9400000000605,
    53.638,
    60.1699999999255,
    5.56999999994878,
    53.638,
    55.6899999999441,
    4.80999999993946,
    53.638,
    55.3899999998976,
    7.78000000002794,
    53.638;

  BuildingSurface:Detailed,
    S14 office core wall 0,
    Wall,
    office ext wall Metal framed walls,
    S14 office core,
    Outdoors,
    ,
    SunExposed,
    WindExposed,
    ,
    ,
    4.36999999987893,
    0.5,
    53.638,
    4.36999999987893,
    0.5,
    49.512,
    4.5999999998603,
    -2.01000000000931,
    49.512,
    4.5999999998603,
    -2.01000000000931,
    53.638;

  BuildingSurface:Detailed,
    S14 office core wall 1,
    Wall,
    office ext wall Metal framed walls,
    S14 office core,
    Outdoors,
    ,
    SunExposed,
    WindExposed,
    ,
    ,
    4.5999999998603,
    -2.01000000000931,
    53.638,
    4.5999999998603,
    -2.01000000000931,
    49.512,
    0.389999999897555,
    -2.69000000006054,
    49.512,
    0.389999999897555,
    -2.69000000006054,
    53.638;

  BuildingSurface:Detailed,
    S14 office core wall 2,
    Wall,
    office ext wall Metal framed walls,
    S14 office core,
    Outdoors,
    ,
    SunExposed,
    WindExposed,
    ,
    ,
    0.389999999897555,
    -2.69000000006054,
    53.638,
    0.389999999897555,
    -2.69000000006054,
    49.512,