  Version,
    9.5;

  Timestep,
    6;

  LifeCycleCost:Parameters,
    Life Cycle Cost Parameters,
    EndOfYear,
    ConstantDollar,
    0.03,
    ,
    ,
    ,
    2011,
    ,
    2011,
    25,
    ,
    None;

  LifeCycleCost:UsePriceEscalation,
    U.S. Avg  Commercial-Electricity,
    Electricity,
    2011,
    January,
    0.9838,
    0.9730,
    0.9632,
    0.9611,
    0.9571,
    0.9553,
    0.9539,
    0.9521,
    0.9546,
    0.9550,
    0.9553,
    0.9564,
    0.9575,
    0.9596,
    0.9618,
    0.9614,
    0.9618,
    0.9618,
    0.9593,
    0.9589,
    0.9607,
    0.9625,
    0.9650,
    0.9708,
    0.9751,
    0.9762,
    0.9766,
    0.9766,
    0.9769,
    0.9773;

  LifeCycleCost:UsePriceEscalation,
    U.S. Avg  Commercial-Distillate Oil,
    FuelOilNo1,
    2011,
    January,
    0.9714,
    0.9730,
    0.9942,
    1.0164,
    1.0541,
    1.0928,
    1.1267,
    1.1580,
    1.1792,
    1.1967,
    1.2200,
    1.2333,
    1.2566,
    1.2709,
    1.2826,
    1.2985,
    1.3102,
    1.3250,
    1.3261,
    1.3282,
    1.3324,
    1.3356,
    1.3431,
    1.3510,
    1.3568,
    1.3606,
    1.3637,
    1.3674,
    1.3706,
    1.3743;

  LifeCycleCost:UsePriceEscalation,
    U.S. Avg  Commercial-Residual Oil,
    FuelOilNo2,
    2011,
    January,
    0.8469,
    0.8257,
    0.8681,
    0.8988,
    0.9289,
    0.9604,
    0.9897,
    1.0075,
    1.0314,
    1.0554,
    1.0861,
    1.1278,
    1.1497,
    1.1620,
    1.1743,
    1.1852,
    1.1948,
    1.2037,
    1.2071,
    1.2119,
    1.2139,
    1.2194,
    1.2276,
    1.2365,
    1.2420,
    1.2461,
    1.2509,
    1.2550,
    1.2591,
    1.2638;

  LifeCycleCost:UsePriceEscalation,
    U.S. Avg  Commercial-Natural gas,
    NaturalGas,
    2011,
    January,
    0.9823,
    0.9557,
    0.9279,
    0.9257,
    0.9346,
    0.9412,
    0.9512,
    0.9645,
    0.9856,
    1.0067,
    1.0222,
    1.0410,
    1.0610,
    1.0787,
    1.0942,
    1.1098,
    1.1220,
    1.1308,
    1.1386,
    1.1486,
    1.1619,
    1.1763,
    1.1918,
    1.2118,
    1.2284,
    1.2439,
    1.2605,
    1.2772,
    1.2938,
    1.3115;

  LifeCycleCost:UsePriceEscalation,
    U.S. Avg  Commercial-Coal,
    Coal,
    2011,
    January,
    0.9970,
    1.0089,
    1.0089,
    0.9941,
    0.9941,
    1.0000,
    1.0030,
    1.0059,
    1.0089,
    1.0119,
    1.0148,
    1.0178,
    1.0208,
    1.0267,
    1.0297,
    1.0356,
    1.0415,
    1.0534,
    1.0564,
    1.0593,
    1.0653,
    1.0712,
    1.0742,
    1.0801,
    1.0831,
    1.0831,
    1.0861,
    1.0890,
    1.0920,
    1.0950;

  Building,
    Building 1,
    ,
    city,
    ,
    ,
    FullExterior,
    50,
    ;

  Zone,
    S1 basement core,
    ,
    ,
    ,
    ,
    ,
    ,
    ,
    ,
    ,
    ,
    ,
    Yes;

  Zone,
    S2 office core,
    ,
    ,
    ,
    ,
    ,
    ,
    ,
    ,
    ,
    ,
    ,
    Yes;

  Zone,
    S3 office core,
    ,
    ,
    ,
    ,
    ,
    ,
    ,
    ,
    ,
    ,
    ,
    Yes;

  Zone,
    S4 office core,
    ,
    ,
    ,
    ,
    ,
    ,
    ,
    ,
    ,
    ,
    ,
    Yes;

  Zone,
    S5 office core,
    ,
    ,
    ,
    ,
    ,
    ,
    ,
    ,
    ,
    ,
    ,
    Yes;

  Zone,
    S6 office core,
    ,
    ,
    ,
    ,
    ,
    ,
    ,
    ,
    ,
    ,
    ,
    Yes;

  Zone,
    S7 office core,
    ,
    ,
    ,
    ,
    ,
    ,
    ,
    ,
    ,
    ,
    ,
    Yes;

  Zone,
    S8 office core,
    ,
    ,
    ,
    ,
    ,
    ,
    ,
    ,
    ,
    ,
    ,
    Yes;

  BuildingSurface:Detailed,
    S1 basement core floor,
    Floor,
    basement ext floor LOB1013C_ext-slab,
    S1 basement core,
    Ground,
    ,
    NoSun,
    NoWind,
    ,
    ,
    62.410000000149,
    3.96999999997206,
    -5.72,
    65.0700000000652,
    4.31000000005588,
    -5.72,
    64.4399999999441,
    9.17000000004191,
    -5.72,
    67.7399999999907,
    9.57000000006519,
    -5.72,
    68.3200000000652,
    4.71999999997206,
    -5.72,
    71.8200000000652,
    5.17000000004191,
    -5.72,
    76.0700000000652,
    -24.390000000014,
    -5.72,
    66.2600000000093,
    -25.6600000000326,
    -5.72,
    66.5800000000745,
    -28.1300000000047,
    -5.72,
    5.22999999998137,
    -36.7800000000279,
    -5.72,
    0.360000000102445,
    -2.30999999993946,
    -5.72,
    62.160000000149,
    5.93000000005122,
    -5.72;

  BuildingSurface:Detailed,
    S1 basement core roof,
    Ceiling,
    ext wall Adiabatic Construction,
    S1 basement core,
    Adiabatic,
    ,
    NoSun,
    NoWind,
    ,
    ,
    65.0700000000652,
    4.31000000005588,
    0,
    62.410000000149,
    3.96999999997206,
    0,
    62.160000000149,
    5.93000000005122,
    0,
    0.360000000102445,
    -2.30999999993946,
    0,
    5.22999999998137,
    -36.7800000000279,
    0,
    66.5800000000745,
    -28.1300000000047,
    0,
    66.2600000000093,
    -25.6600000000326,
    0,
    76.0700000000652,
    -24.390000000014,
    0,
    71.8200000000652,
    5.17000000004191,
    0,
    68.3200000000652,
    4.71999999997206,
    0,
    67.7399999999907,
    9.57000000006519,
    0,
    64.4399999999441,
    9.17000000004191,
    0;

  BuildingSurface:Detailed,
    S1 basement core wall 0,
    Wall,
    basement ext wall LOB1013C_Underground Wall Non-res,
    S1 basement core,
    Ground,
    ,
    NoSun,
    NoWind,
    ,
    ,
    65.0700000000652,
    4.31000000005588,
    0,
    65.0700000000652,
    4.31000000005588,
    -5.72,
    62.410000000149,
    3.96999999997206,
    -5.72,
    62.410000000149,
    3.96999999997206,
    0;

  BuildingSurface:Detailed,
    S1 basement core wall 1,
    Wall,
    basement ext wall LOB1013C_Underground Wall Non-res,
    S1 basement core,
    Ground,
    ,
    NoSun,
    NoWind,
    ,
    ,
    62.410000000149,
    3.96999999997206,
    0,
    62.410000000149,
    3.96999999997206,
    -5.72,
    62.160000000149,
    5.93000000005122,
    -5.72,
    62.160000000149,
    5.93000000005122,
    0;

  BuildingSurface:Detailed,
    S1 basement core wall 10,
    Wall,
    basement ext wall LOB1013C_Underground Wall Non-res,
    S1 basement core,
    Ground,
    ,
    NoSun,
    NoWind,
    ,
    ,
    67.7399999999907,
    9.57000000006519,
    0,
    67.7399999999907,
    9.57000000006519,
    -5.72,
    64.4399999999441,
    9.17000000004191,
    -5.72,
    64.4399999999441,
    9.17000000004191,
    0;

  BuildingSurface:Detailed,
    S1 basement core wall 11,
    Wall,
    basement ext wall LOB1013C_Underground Wall Non-res,
    S1 basement core,
    Ground,
    ,
    NoSun,
    NoWind,
    ,
    ,
    64.4399999999441,
    9.17000000004191,
    0,
    64.4399999999441,
    9.17000000004191,
    -5.72,
    65.0700000000652,
    4.31000000005588,
    -5.72,
    65.0700000000652,
    4.31000000005588,
    0;

  BuildingSurface:Detailed,
    S1 basement core wall 2,
    Wall,
    basement ext wall LOB1013C_Underground Wall Non-res,
    S1 basement core,
    Ground,
    ,
    NoSun,
    NoWind,
    ,
    ,
    62.160000000149,
    5.93000000005122,
    0,
    62.160000000149,
    5.93000000005122,
    -5.72,
    0.360000000102445,
    -2.30999999993946,
    -5.72,
    0.360000000102445,
    -2.30999999993946,
    0;

  BuildingSurface:Detailed,
    S1 basement core wall 3,
    Wall,
    basement ext wall LOB1013C_Underground Wall Non-res,
    S1 basement core,
    Ground,
    ,
    NoSun,
    NoWind,
    ,
    ,
    0.360000000102445,
    -2.30999999993946,
    0,
    0.360000000102445,
    -2.30999999993946,
    -5.72,
    5.22999999998137,
    -36.7800000000279,
    -5.72,
    5.22999999998137,
    -36.7800000000279,
    0;

  BuildingSurface:Detailed,
    S1 basement core wall 4,
    Wall,
    basement ext wall LOB1013C_Underground Wall Non-res,
    S1 basement core,
    Ground,
    ,
    NoSun,
    NoWind,
    ,
    ,
    5.22999999998137,
    -36.7800000000279,
    0,
    5.22999999998137,
    -36.7800000000279,
    -5.72,
    66.5800000000745,
    -28.1300000000047,
    -5.72,
    66.5800000000745,
    -28.1300000000047,
    0;

  BuildingSurface:Detailed,
    S1 basement core wall 5,
    Wall,
    basement ext wall LOB1013C_Underground Wall Non-res,
    S1 basement core,
    Ground,
    ,
    NoSun,
    NoWind,
    ,
    ,
    66.5800000000745,
    -28.1300000000047,
    0,
    66.5800000000745,
    -28.1300000000047,
    -5.72,
    66.2600000000093,
    -25.6600000000326,
    -5.72,
    66.2600000000093,
    -25.6600000000326,
    0;

  BuildingSurface:Detailed,
    S1 basement core wall 6,
    Wall,
    basement ext wall LOB1013C_Underground Wall Non-res,
    S1 basement core,
    Ground,
    ,
    NoSun,
    NoWind,
    ,
    ,
    66.2600000000093,
    -25.6600000000326,
    0,
    66.2600000000093,
    -25.6600000000326,
    -5.72,
    76.0700000000652,
    -24.390000000014,
    -5.72,
    76.0700000000652,
    -24.390000000014,
    0;

  BuildingSurface:Detailed,
    S1 basement core wall 7,
    Wall,
    basement ext wall LOB1013C_Underground Wall Non-res,
    S1 basement core,
    Ground,
    ,
    NoSun,
    NoWind,
    ,
    ,
    76.0700000000652,
    -24.390000000014,
    0,
    76.0700000000652,
    -24.390000000014,
    -5.72,
    71.8200000000652,
    5.17000000004191,
    -5.72,
    71.8200000000652,
    5.17000000004191,
    0;

  BuildingSurface:Detailed,
    S1 basement core wall 8,
    Wall,
    basement ext wall LOB1013C_Underground Wall Non-res,
    S1 basement core,
    Ground,
    ,
    NoSun,
    NoWind,
    ,
    ,
    71.8200000000652,
    5.17000000004191,
    0,
    71.8200000000652,
    5.17000000004191,
    -5.72,
    68.3200000000652,
    4.71999999997206,
    -5.72,
    68.3200000000652,
    4.71999999997206,
    0;

  BuildingSurface:Detailed,
    S1 basement core wall 9,
    Wall,
    basement ext wall LOB1013C_Underground Wall Non-res,
    S1 basement core,
    Ground,
    ,
    NoSun,
    NoWind,
    ,
    ,
    68.3200000000652,
    4.71999999997206,
    0,
    68.3200000000652,
    4.71999999997206,
    -5.72,
    67.7399999999907,
    9.57000000006519,
    -5.72,
    67.7399999999907,
    9.57000000006519,
    0;

  BuildingSurface:Detailed,
    S2 office core floor,
    Floor,
    ext wall Adiabatic Construction,
    S2 office core,
    Adiabatic,
    ,
    NoSun,
    NoWind,
    ,
    ,
    62.410000000149,
    3.96999999997206,
    0,
    65.0700000000652,
    4.31000000005588,
    0,
    64.4399999999441,
    9.17000000004191,
    0,
    67.7399999999907,
    9.57000000006519,
    0,
    68.3200000000652,
    4.71999999997206,
    0,
    71.8200000000652,
    5.17000000004191,
    0,
    76.0700000000652,
    -24.390000000014,
    0,
    66.2600000000093,
    -25.6600000000326,
    0,
    66.5800000000745,
    -28.1300000000047,
    0,
    5.22999999998137,
    -36.7800000000279,
    0,
    0.360000000102445,
    -2.30999999993946,
    0,
    62.160000000149,
    5.93000000005122,
    0;

  BuildingSurface:Detailed,
    S2 office core roof,
    Ceiling,
    office int floor Metal framed walls Reversed,
    S2 office core,
    Surface,
    S3 office core floor,
    NoSun,
    NoWind,
    ,
    ,
    65.0700000000652,
    4.31000000005588,
    5.72,
    62.410000000149,
    3.96999999997206,
    5.72,
    62.160000000149,
    5.93000000005122,
    5.72,
    0.360000000102445,
    -2.30999999993946,
    5.72,
    5.22999999998137,
    -36.7800000000279,
    5.72,
    66.5800000000745,
    -28.1300000000047,
    5.72,
    66.2600000000093,
    -25.6600000000326,
    5.72,
    76.0700000000652,
    -24.390000000014,
    5.72,
    71.8200000000652,
    5.17000000004191,
    5.72,
    68.3200000000652,
    4.71999999997206,
    5.72,
    67.7399999999907,
    9.57000000006519,
    5.72,
    64.4399999999441,
    9.17000000004191,
    5.72;

  BuildingSurface:Detailed,
    S2 office core wall 0,
    Wall,
    office ext wall Metal framed walls,
    S2 office core,
    Outdoors,
    ,
    SunExposed,
    WindExposed,
    ,
    ,
    65.0700000000652,
    4.31000000005588,
    5.72,
    65.0700000000652,
    4.31000000005588,
    0,
    62.410000000149,
    3.96999999997206,
    0,
    62.410000000149,
    3.96999999997206,
    5.72;

  BuildingSurface:Detailed,
    S2 office core wall 1,
    Wall,
    office ext wall Metal framed walls,
    S2 office core,
    Outdoors,
    ,
    SunExposed,
    WindExposed,
    ,
    ,
    62.410000000149,
    3.96999999997206,
    5.72,
    62.410000000149,
    3.96999999997206,
    0,
    62.160000000149,
    5.93000000005122,
    0,
    62.160000000149,
    5.93000000005122,
    5.72;

  BuildingSurface:Detailed,
    S2 office core wall 10,
    Wall,
    office ext wall Metal framed walls,
    S2 office core,
    Outdoors,
    ,
    SunExposed,
    WindExposed,
    ,
    ,
    67.7399999999907,
    9.57000000006519,
    5.72,
    67.7399999999907,
    9.57000000006519,
    0,
    64.4399999999441,
    9.17000000004191,
    0,
    64.4399999999441,
    9.17000000004191,
    5.72;

  BuildingSurface:Detailed,
    S2 office core wall 11,
    Wall,
    office ext wall Metal framed walls,
    S2 office core,
    Outdoors,
    ,
    SunExposed,
    WindExposed,
    ,
    ,
    64.4399999999441,
    9.17000000004191,
    5.72,
    64.4399999999441,
    9.17000000004191,
    0,
    65.0700000000652,
    4.31000000005588,
    0,
    65.0700000000652,
    4.31000000005588,
    5.72;

  BuildingSurface:Detailed,
    S2 office core wall 2,
    Wall,
    office ext wall Metal framed walls,
    S2 office core,
    Outdoors,
    ,
    SunExposed,
    WindExposed,
    ,
    ,
    62.160000000149,
    5.93000000005122,
    5.72,
    62.160000000149,
    5.93000000005122,
    0,
    0.360000000102445,
    -2.30999999993946,
    0,
    0.360000000102445,
    -2.30999999993946,
    5.72;

  BuildingSurface:Detailed,
    S2 office core wall 3,
    Wall,
    office ext wall Metal framed walls,
    S2 office core,
    Outdoors,
    ,
    SunExposed,
    WindExposed,
    ,
    ,
    0.360000000102445,
    -2.30999999993946,
    5.72,
    0.360000000102445,
    -2.30999999993946,
    0,
    5.22999999998137,
    -36.7800000000279,
    0,
    5.22999999998137,
    -36.7800000000279,
    5.72;

  BuildingSurface:Detailed,
    S2 office core wall 4,
    Wall,
    office ext wall Metal framed walls,
    S2 office core,
    Outdoors,
    ,
    SunExposed,
    WindExposed,
    ,
    ,
    5.22999999998137,
    -36.7800000000279,
    5.72,
    5.22999999998137,
    -36.7800000000279,
    0,
    66.5800000000745,
    -28.1300000000047,
    0,
    66.5800000000745,
    -28.1300000000047,
    5.72;

  BuildingSurface:Detailed,
    S2 office core wall 5,
    Wall,
    office ext wall Metal framed walls,
    S2 office core,
    Outdoors,
    ,
    SunExposed,
    WindExposed,
    ,
    ,
    66.5800000000745,
    -28.1300000000047,
    5.72,
    66.5800000000745,
    -28.1300000000047,
    0,
    66.2600000000093,
    -25.6600000000326,
    0,
    66.2600000000093,
    -25.6600000000326,
    5.72;

  BuildingSurface:Detailed,
    S2 office core wall 6,
    Wall,
    office ext wall Metal framed walls,
    S2 office core,
    Outdoors,
    ,
    SunExposed,
    WindExposed,
    ,
    ,
    66.2600000000093,
    -25.6600000000326,
    5.72,
    66.2600000000093,
    -25.6600000000326,
    0,
    76.0700000000652,
    -24.390000000014,
    0,
    76.0700000000652,
    -24.390000000014,
    5.72;

  BuildingSurface:Detailed,
    S2 office core wall 7,
    Wall,
    office ext wall Metal framed walls,
    S2 office core,
    Outdoors,
    ,
    SunExposed,
    WindExposed,
    ,
    ,
    76.0700000000652,
    -24.390000000014,
    5.72,
    76.0700000000652,
    -24.390000000014,
    0,
    71.8200000000652,
    5.17000000004191,
    0,
    71.8200000000652,
    5.17000000004191,
    5.72;

  BuildingSurface:Detailed,
    S2 office core wall 8,
    Wall,
    office ext wall Metal framed walls,
    S2 office core,
    Outdoors,
    ,
    SunExposed,
    WindExposed,
    ,
    ,
    71.8200000000652,
    5.17000000004191,
    5.72,
    71.8200000000652,
    5.17000000004191,
    0,
    68.3200000000652,
    4.71999999997206,
    0,
    68.3200000000652,
    4.71999999997206,
    5.72;

  BuildingSurface:Detailed,
    S2 office core wall 9,
    Wall,
    office ext wall Metal framed walls,
    S2 office core,
    Outdoors,
    ,
    SunExposed,
    WindExposed,
    ,
    ,
    68.3200000000652,
    4.71999999997206,
    5.72,
    68.3200000000652,
    4.71999999997206,
    0,
    67.7399999999907,
    9.57000000006519,
    0,
    67.7399999999907,
    9.57000000006519,
    5.72;

  BuildingSurface:Detailed,
    S3 office core floor,
    Floor,
    office int floor Metal framed walls,
    S3 office core,
    Surface,
    S2 office core roof,
    NoSun,
    NoWind,
    ,
    ,
    62.410000000149,
    3.96999999997206,
    5.72,
    65.0700000000652,
    4.31000000005588,
    5.72,
    64.4399999999441,
    9.17000000004191,
    5.72,
    67.7399999999907,
    9.57000000006519,
    5.72,
    68.3200000000652,
    4.71999999997206,
    5.72,
    71.8200000000652,
    5.17000000004191,
    5.72,
    76.0700000000652,
    -24.390000000014,
    5.72,
    66.2600000000093,
    -25.6600000000326,
    5.72,
    66.5800000000745,
    -28.1300000000047,
    5.72,
    5.22999999998137,
    -36.7800000000279,
    5.72,
    0.360000000102445,
    -2.30999999993946,
    5.72,
    62.160000000149,
    5.93000000005122,
    5.72;

  BuildingSurface:Detailed,
    S3 office core roof,
    Ceiling,
    office int floor Metal framed walls Reversed,
    S3 office core,
    Surface,
    S4 office core floor,
    NoSun,
    NoWind,
    ,
    ,
    65.0700000000652,
    4.31000000005588,
    11.44,
    62.410000000149,
    3.96999999997206,
    11.44,
    62.160000000149,
    5.93000000005122,
    11.44,
    0.360000000102445,
    -2.30999999993946,
    11.44,
    5.22999999998137,
    -36.7800000000279,
    11.44,
    66.5800000000745,
    -28.1300000000047,
    11.44,
    66.2600000000093,
    -25.6600000000326,
    11.44,
    76.0700000000652,
    -24.390000000014,
    11.44,
    71.8200000000652,
    5.17000000004191,
    11.44,
    68.3200000000652,
    4.71999999997206,
    11.44,
    67.7399999999907,
    9.57000000006519,
    11.44,
    64.4399999999441,
    9.17000000004191,
    11.44;

  BuildingSurface:Detailed,
    S3 office core wall 0,
    Wall,
    office ext wall Metal framed walls,
    S3 office core,
    Outdoors,
    ,
    SunExposed,
    WindExposed,
    ,
    ,
    65.0700000000652,
    4.31000000005588,
    11.44,
    65.0700000000652,
    4.31000000005588,
    5.72,
    62.410000000149,
    3.96999999997206,
    5.72,
    62.410000000149,
    3.96999999997206,
    11.44;

  BuildingSurface:Detailed,
    S3 office core wall 1,
    Wall,
    office ext wall Metal framed walls,
    S3 office core,
    Outdoors,
    ,
    SunExposed,
    WindExposed,
    ,
    ,
    62.410000000149,
    3.96999999997206,
    11.44,
    62.410000000149,
    3.96999999997206,
    5.72,
    62.160000000149,
    5.93000000005122,
    5.72,
    62.160000000149,
    5.93000000005122,
    11.44;

  BuildingSurface:Detailed,
    S3 office core wall 10,
    Wall,
    office ext wall Metal framed walls,
    S3 office core,
    Outdoors,
    ,
    SunExposed,
    WindExposed,
    ,
    ,
    67.7399999999907,
    9.57000000006519,
    11.44,
    67.7399999999907,
    9.57000000006519,
    5.72,
    64.4399999999441,
    9.17000000004191,
    5.72,
    64.4399999999441,
    9.17000000004191,
    11.44;

  BuildingSurface:Detailed,
    S3 office core wall 11,
    Wall,
    office ext wall Metal framed walls,
    S3 office core,
    Outdoors,
    ,
    SunExposed,
    WindExposed,
    ,
    ,
    64.4399999999441,
    9.17000000004191,
    11.44,
    64.4399999999441,
    9.17000000004191,
    5.72,
    65.0700000000652,
    4.31000000005588,
    5.72,
    65.0700000000652,
    4.31000000005588,
    11.44;

  BuildingSurface:Detailed,
    S3 office core wall 2,
    Wall,
    office ext wall Metal framed walls,
    S3 office core,
    Outdoors,
    ,
    SunExposed,
    WindExposed,
    ,
    ,
    62.160000000149,
    5.93000000005122,
    11.44,
    62.160000000149,
    5.93000000005122,
    5.72,
    0.360000000102445,
    -2.30999999993946,
    5.72,
    0.360000000102445,
    -2.30999999993946,
    11.44;

  BuildingSurface:Detailed,
    S3 office core wall 3,
    Wall,
    office ext wall Metal framed walls,
    S3 office core,
    Outdoors,
    ,
    SunExposed,
    WindExposed,
    ,
    ,
    0.360000000102445,
    -2.30999999993946,
    11.44,
    0.360000000102445,
    -2.30999999993946,
    5.72,
    5.22999999998137,
    -36.7800000000279,
    5.72,
    5.22999999998137,
    -36.7800000000279,
    11.44;

  BuildingSurface:Detailed,
    S3 office core wall 4,
    Wall,
    office ext wall Metal framed walls,
    S3 office core,
    Outdoors,
    ,
    SunExposed,
    WindExposed,
    ,
    ,
    5.22999999998137,
    -36.7800000000279,
    11.44,
    5.22999999998137,
    -36.7800000000279,
    5.72,
    66.5800000000745,
    -28.1300000000047,
    5.72,
    66.5800000000745,
    -28.1300000000047,
    11.44;

  BuildingSurface:Detailed,
    S3 office core wall 5,
    Wall,
    office ext wall Metal framed walls,
    S3 office core,
    Outdoors,
    ,
    SunExposed,
    WindExposed,
    ,
    ,
    66.5800000000745,
    -28.1300000000047,
    11.44,
    66.5800000000745,
    -28.1300000000047,
    5.72,
    66.2600000000093,
    -25.6600000000326,
    5.72,
    66.2600000000093,
    -25.6600000000326,
    11.44;

  BuildingSurface:Detailed,
    S3 office core wall 6,
    Wall,
    office ext wall Metal framed walls,
    S3 office core,
    Outdoors,
    ,
    SunExposed,
    WindExposed,
    ,
    ,
    66.2600000000093,
    -25.6600000000326,
    11.44,
    66.2600000000093,
    -25.6600000000326,
    5.72,
    76.0700000000652,
    -24.390000000014,
    5.72,
    76.0700000000652,
    -24.390000000014,
    11.44;

  BuildingSurface:Detailed,
    S3 office core wall 7,
    Wall,
    office ext wall Metal framed walls,
    S3 office core,
    Outdoors,
    ,
    SunExposed,
    WindExposed,
    ,
    ,
    76.0700000000652,
    -24.390000000014,
    11.44,
    76.0700000000652,
    -24.390000000014,
    5.72,
    71.8200000000652,
    5.17000000004191,
    5.72,
    71.8200000000652,
    5.17000000004191,
    11.44;

  BuildingSurface:Detailed,
    S3 office core wall 8,
    Wall,
    office ext wall Metal framed walls,
    S3 office core,
    Outdoors,
    ,
    SunExposed,
    WindExposed,
    ,
    ,
    71.8200000000652,
    5.17000000004191,
    11.44,
    71.8200000000652,
    5.17000000004191,
    5.72,
    68.3200000000652,
    4.71999999997206,
    5.72,
    68.3200000000652,
    4.71999999997206,
    11.44;

  BuildingSurface:Detailed,
    S3 office core wall 9,
    Wall,
    office ext wall Metal framed walls,
    S3 office core,
    Outdoors,
    ,
    SunExposed,
    WindExposed,
    ,
    ,
    68.3200000000652,
    4.71999999997206,
    11.44,
    68.3200000000652,
    4.71999999997206,
    5.72,
    67.7399999999907,
    9.57000000006519,
    5.72,
    67.7399999999907,
    9.57000000006519,
    11.44;

  BuildingSurface:Detailed,
    S4 office core floor,
    Floor,
    office int floor Metal framed walls,
    S4 office core,
    Surface,
    S3 office core roof,
    NoSun,
    NoWind,
    ,
    ,
    62.410000000149,
    3.96999999997206,
    11.44,
    65.0700000000652,
    4.31000000005588,
    11.44,
    64.4399999999441,
    9.17000000004191,
    11.44,
    67.7399999999907,
    9.57000000006519,
    11.44,
    68.3200000000652,
    4.71999999997206,
    11.44,
    71.8200000000652,
    5.17000000004191,
    11.44,
    76.0700000000652,
    -24.390000000014,
    11.44,
    66.2600000000093,
    -25.6600000000326,
    11.44,
    66.5800000000745,
    -28.1300000000047,
    11.44,
    5.22999999998137,
    -36.7800000000279,
    11.44,
    0.360000000102445,
    -2.30999999993946,
    11.44,
    62.160000000149,
    5.93000000005122,
    11.44;

  BuildingSurface:Detailed,
    S4 office core roof,
    Ceiling,
    office int floor Metal framed walls Reversed,
    S4 office core,
    Surface,
    S5 office core floor,
    NoSun,
    NoWind,
    ,
    ,
    65.0700000000652,
    4.31000000005588,
    17.16,
    62.410000000149,
    3.96999999997206,
    17.16,
    62.160000000149,
    5.93000000005122,
    17.16,
    0.360000000102445,
    -2.30999999993946,
    17.16,
    5.22999999998137,
    -36.7800000000279,
    17.16,
    66.5800000000745,
    -28.1300000000047,
    17.16,
    66.2600000000093,
    -25.6600000000326,
    17.16,
    76.0700000000652,
    -24.390000000014,
    17.16,
    71.8200000000652,
    5.17000000004191,
    17.16,
    68.3200000000652,
    4.71999999997206,
    17.16,
    67.7399999999907,
    9.57000000006519,
    17.16,
    64.4399999999441,
    9.17000000004191,
    17.16;

  BuildingSurface:Detailed,
    S4 office core wall 0,
    Wall,
    office ext wall Metal framed walls,
    S4 office core,
    Outdoors,
    ,
    SunExposed,
    WindExposed,
    ,
    ,
    65.0700000000652,
    4.31000000005588,
    17.16,
    65.0700000000652,
    4.31000000005588,
    11.44,
    62.410000000149,
    3.96999999997206,
    11.44,
    62.410000000149,
    3.96999999997206,
    17.16;

  BuildingSurface:Detailed,
    S4 office core wall 1,
    Wall,
    office ext wall Metal framed walls,
    S4 office core,
    Outdoors,
    ,
    SunExposed,
    WindExposed,
    ,
    ,
    62.410000000149,
    3.96999999997206,
    17.16,
    62.410000000149,
    3.96999999997206,
    11.44,
    62.160000000149,
    5.93000000005122,
    11.44,
    62.160000000149,
    5.93000000005122,
    17.16;

  BuildingSurface:Detailed,
    S4 office core wall 10,
    Wall,
    office ext wall Metal framed walls,
    S4 office core,
    Outdoors,
    ,
    SunExposed,
    WindExposed,
    ,
    ,
    67.7399999999907,
    9.57000000006519,
    17.16,
    67.7399999999907,
    9.57000000006519,
    11.44,
    64.4399999999441,
    9.17000000004191,
    11.44,
    64.4399999999441,
    9.17000000004191,
    17.16;

  BuildingSurface:Detailed,
    S4 office core wall 11,
    Wall,
    office ext wall Metal framed walls,
    S4 office core,
    Outdoors,
    ,
    SunExposed,
    WindExposed,
    ,
    ,
    64.4399999999441,
    9.17000000004191,
    17.16,
    64.4399999999441,
    9.17000000004191,
    11.44,
    65.0700000000652,
    4.31000000005588,
    11.44,
    65.0700000000652,
    4.31000000005588,
    17.16;

  BuildingSurface:Detailed,
    S4 office core wall 2,
    Wall,
    office ext wall Metal framed walls,
    S4 office core,
    Outdoors,
    ,
    SunExposed,
    WindExposed,
    ,
    ,
    62.160000000149,
    5.93000000005122,
    17.16,
    62.160000000149,
    5.93000000005122,
    11.44,
    0.360000000102445,
    -2.30999999993946,
    11.44,
    0.360000000102445,
    -2.30999999993946,
    17.16;

  BuildingSurface:Detailed,
    S4 office core wall 3,
    Wall,
    office ext wall Metal framed walls,
    S4 office core,
    Outdoors,
    ,
    SunExposed,
    WindExposed,
    ,
    ,
    0.360000000102445,
    -2.30999999993946,
    17.16,
    0.360000000102445,
    -2.30999999993946,
    11.44,
    5.22999999998137,
    -36.7800000000279,
    11.44,
    5.22999999998137,
    -36.7800000000279,
    17.16;

  BuildingSurface:Detailed,
    S4 office core wall 4,
    Wall,
    office ext wall Metal framed walls,
    S4 office core,
    Outdoors,
    ,
    SunExposed,
    WindExposed,
    ,
    ,
    5.22999999998137,
    -36.7800000000279,
    17.16,
    5.22999999998137,
    -36.7800000000279,
    11.44,
    66.5800000000745,
    -28.1300000000047,
    11.44,
    66.5800000000745,
    -28.1300000000047,
    17.16;

  BuildingSurface:Detailed,
    S4 office core wall 5,
    Wall,
    office ext wall Metal framed walls,
    S4 office core,
    Outdoors,
    ,
    SunExposed,
    WindExposed,
    ,
    ,
    66.5800000000745,
    -28.1300000000047,
    17.16,
    66.5800000000745,
    -28.1300000000047,
    11.44,
    66.2600000000093,
    -25.6600000000326,
    11.44,
    66.2600000000093,
    -25.6600000000326,
    17.16;

  BuildingSurface:Detailed,
    S4 office core wall 6,
    Wall,
    office ext wall Metal framed walls,
    S4 office core,
    Outdoors,
    ,
    SunExposed,
    WindExposed,
    ,
    ,
    66.2600000000093,
    -25.6600000000326,
    17.16,
    66.2600000000093,
    -25.6600000000326,
    11.44,
    76.0700000000652,
    -24.390000000014,
    11.44,
    76.0700000000652,
    -24.390000000014,
    17.16;

  BuildingSurface:Detailed,
    S4 office core wall 7,
    Wall,
    office ext wall Metal framed walls,
    S4 office core,
    Outdoors,
    ,
    SunExposed,
    WindExposed,
    ,
    ,
    76.0700000000652,
    -24.390000000014,
    17.16,
    76.0700000000652,
    -24.390000000014,
    11.44,
    71.8200000000652,
    5.17000000004191,
    11.44,
    71.8200000000652,
    5.17000000004191,
    17.16;

  BuildingSurface:Detailed,
    S4 office core wall 8,
    Wall,
    office ext wall Metal framed walls,
    S4 office core,
    Outdoors,
    ,
    SunExposed,
    WindExposed,
    ,
    ,
    71.8200000000652,
    5.17000000004191,
    17.16,
    71.8200000000652,
    5.17000000004191,
    11.44,
    68.3200000000652,
    4.71999999997206,
    11.44,
    68.3200000000652,
    4.71999999997206,
    17.16;

  BuildingSurface:Detailed,
    S4 office core wall 9,
    Wall,
    office ext wall Metal framed walls,
    S4 office core,
    Outdoors,
    ,
    SunExposed,
    WindExposed,
    ,
    ,
    68.3200000000652,
    4.71999999997206,
    17.16,
    68.3200000000652,
    4.71999999997206,
    11.44,
    67.7399999999907,
    9.57000000006519,
    11.44,
    67.7399999999907,
    9.57000000006519,
    17.16;

  BuildingSurface:Detailed,
    S5 office core floor,
    Floor,